	3

Ar	0.000000	0.000000	0.000000	
Ar	0.000000	0.000000	0.500000	
Ar	0.100000	0.200000	-0.500000	
	3

Ar	0.001227	0.002454	0.005817	
Ar	0.000014	0.000029	0.487904	
Ar	0.098758	0.197517	-0.493721	
	3

Ar	0.004831	0.009661	0.028119	
Ar	0.000149	0.000298	0.446372	
Ar	0.095021	0.190041	-0.474491	
	3

Ar	0.011086	0.022172	0.045222	
Ar	0.000048	0.000097	0.396351	
Ar	0.088866	0.177731	-0.441572	
	3

Ar	0.023553	0.047105	-0.063554	
Ar	-0.002813	-0.005625	0.450964	
Ar	0.079260	0.158520	-0.387410	
	3

Ar	0.008094	0.016187	0.003924	
Ar	-0.004527	-0.009054	0.481636	
Ar	0.096434	0.192867	-0.485559	
	3

Ar	-0.014786	-0.029571	0.138284	
Ar	-0.005628	-0.011257	0.484334	
Ar	0.120414	0.240828	-0.622618	
	3

Ar	-0.043504	-0.087007	0.138072	
Ar	-0.000542	-0.001084	0.619633	
Ar	0.144046	0.288091	-0.757705	
	3

Ar	-0.072697	-0.145394	0.112422	
Ar	0.005074	0.010147	0.780090	
Ar	0.167623	0.335246	-0.892512	
	3

Ar	-0.101370	-0.202740	0.091276	
Ar	0.010191	0.020383	0.935947	
Ar	0.191179	0.382358	-1.027222	
	3

Ar	-0.129943	-0.259887	0.070804	
Ar	0.015218	0.030436	1.091092	
Ar	0.214725	0.429451	-1.161895	
	3

Ar	-0.158489	-0.316979	0.050481	
Ar	0.020222	0.040444	1.246071	
Ar	0.238267	0.476535	-1.296552	
	3

Ar	-0.187026	-0.374052	0.030200	
Ar	0.025219	0.050437	1.401001	
Ar	0.261807	0.523615	-1.431201	
	3

Ar	-0.215559	-0.431117	0.009934	
Ar	0.030212	0.060425	1.555913	
Ar	0.285346	0.570693	-1.565847	
	3

Ar	-0.244090	-0.488179	-0.010327	
Ar	0.035205	0.070410	1.710818	
Ar	0.308885	0.617769	-1.700490	
	3

Ar	-0.272620	-0.545239	-0.030586	
Ar	0.040197	0.080394	1.865719	
Ar	0.332422	0.664845	-1.835133	
	3

Ar	-0.301149	-0.602298	-0.050844	
Ar	0.045189	0.090378	2.020618	
Ar	0.355960	0.711920	-1.969774	
	3

Ar	-0.329678	-0.659357	-0.071101	
Ar	0.050181	0.100361	2.175517	
Ar	0.379498	0.758995	-2.104416	
	3

Ar	-0.358207	-0.716415	-0.091358	
Ar	0.055172	0.110345	2.330415	
Ar	0.403035	0.806070	-2.239057	
	3

Ar	-0.386736	-0.773473	-0.111615	
Ar	0.060164	0.120328	2.485313	
Ar	0.426573	0.853145	-2.373698	
	3

Ar	-0.415265	-0.830531	-0.131872	
Ar	0.065156	0.130311	2.640211	
Ar	0.450110	0.900220	-2.508339	
	3

Ar	-0.443794	-0.887589	-0.152129	
Ar	0.070147	0.140294	2.795108	
Ar	0.473647	0.947295	-2.642980	
	3

Ar	-0.472323	-0.944646	-0.172386	
Ar	0.075139	0.150277	2.950006	
Ar	0.497185	0.994369	-2.777620	
	3

Ar	-0.500852	-1.001704	-0.192643	
Ar	0.080130	0.160260	3.104903	
Ar	0.520722	1.041444	-2.912261	
	3

Ar	-0.529381	-1.058762	-0.212899	
Ar	0.085122	0.170243	3.259801	
Ar	0.544259	1.088518	-3.046902	
	3

Ar	-0.557910	-1.115819	-0.233156	
Ar	0.090113	0.180226	3.414698	
Ar	0.567797	1.135593	-3.181542	
	3

Ar	-0.586438	-1.172877	-0.253413	
Ar	0.095105	0.190209	3.569596	
Ar	0.591334	1.182668	-3.316183	
	3

Ar	-0.614967	-1.229934	-0.273670	
Ar	0.100096	0.200192	3.724493	
Ar	0.614871	1.229742	-3.450824	
	3

Ar	-0.643496	-1.286992	-0.293926	
Ar	0.105088	0.210175	3.879391	
Ar	0.638408	1.276817	-3.585464	
	3

Ar	-0.672025	-1.344050	-0.314183	
Ar	0.110079	0.220158	4.034288	
Ar	0.661946	1.323891	-3.720105	
	3

Ar	-0.700554	-1.401107	-0.334440	
Ar	0.115071	0.230141	4.189185	
Ar	0.685483	1.370966	-3.854745	
	3

Ar	-0.729082	-1.458165	-0.354697	
Ar	0.120062	0.240124	4.344083	
Ar	0.709020	1.418040	-3.989386	
	3

Ar	-0.757611	-1.515222	-0.374953	
Ar	0.125054	0.250107	4.498980	
Ar	0.732558	1.465115	-4.124027	
	3

Ar	-0.786140	-1.572280	-0.395210	
Ar	0.130045	0.260090	4.653877	
Ar	0.756095	1.512190	-4.258667	
	3

Ar	-0.814669	-1.629337	-0.415467	
Ar	0.135037	0.270073	4.808775	
Ar	0.779632	1.559264	-4.393308	
	3

Ar	-0.843197	-1.686395	-0.435724	
Ar	0.140028	0.280056	4.963672	
Ar	0.803169	1.606339	-4.527948	
	3

Ar	-0.871726	-1.743453	-0.455981	
Ar	0.145020	0.290039	5.118570	
Ar	0.826707	1.653413	-4.662589	
	3

Ar	-0.900255	-1.800510	-0.476237	
Ar	0.150011	0.300022	5.273467	
Ar	0.850244	1.700488	-4.797230	
	3

Ar	-0.928784	-1.857568	-0.496494	
Ar	0.155003	0.310005	5.428364	
Ar	0.873781	1.747562	-4.931870	
	3

Ar	-0.957313	-1.914625	-0.516751	
Ar	0.159994	0.319988	5.583262	
Ar	0.897318	1.794637	-5.066511	
	3

Ar	-0.985841	-1.971683	-0.537008	
Ar	0.164986	0.329971	5.738159	
Ar	0.920856	1.841711	-5.201151	
	3

Ar	-1.014370	-2.028740	-0.557264	
Ar	0.169977	0.339954	5.893057	
Ar	0.944393	1.888786	-5.335792	
	3

Ar	-1.042899	-2.085798	-0.577521	
Ar	0.174969	0.349937	6.047954	
Ar	0.967930	1.935861	-5.470433	
	3

Ar	-1.071428	-2.142855	-0.597778	
Ar	0.179960	0.359920	6.202851	
Ar	0.991468	1.982935	-5.605073	
	3

Ar	-1.099956	-2.199913	-0.618035	
Ar	0.184952	0.369903	6.357749	
Ar	1.015005	2.030010	-5.739714	
	3

Ar	-1.128485	-2.256971	-0.638292	
Ar	0.189943	0.379886	6.512646	
Ar	1.038542	2.077084	-5.874354	
	3

Ar	-1.157014	-2.314028	-0.658548	
Ar	0.194935	0.389869	6.667543	
Ar	1.062079	2.124159	-6.008995	
	3

Ar	-1.185543	-2.371086	-0.678805	
Ar	0.199926	0.399852	6.822441	
Ar	1.085617	2.171233	-6.143636	
	3

Ar	-1.214072	-2.428143	-0.699062	
Ar	0.204918	0.409835	6.977338	
Ar	1.109154	2.218308	-6.278276	
	3

Ar	-1.242600	-2.485201	-0.719319	
Ar	0.209909	0.419818	7.132235	
Ar	1.132691	2.265382	-6.412917	
	3

Ar	-1.271129	-2.542258	-0.739576	
Ar	0.214901	0.429801	7.287133	
Ar	1.156229	2.312457	-6.547557	
	3

Ar	-1.299658	-2.599316	-0.759832	
Ar	0.219892	0.439784	7.442030	
Ar	1.179766	2.359532	-6.682198	
	3

Ar	-1.328187	-2.656373	-0.780089	
Ar	0.224884	0.449767	7.596928	
Ar	1.203303	2.406606	-6.816839	
	3

Ar	-1.356715	-2.713431	-0.800346	
Ar	0.229875	0.459750	7.751825	
Ar	1.226840	2.453681	-6.951479	
	3

Ar	-1.385244	-2.770489	-0.820603	
Ar	0.234867	0.469733	7.906722	
Ar	1.250378	2.500755	-7.086120	
	3

Ar	-1.413773	-2.827546	-0.840859	
Ar	0.239858	0.479716	8.061620	
Ar	1.273915	2.547830	-7.220760	
	3

Ar	-1.442302	-2.884604	-0.861116	
Ar	0.244850	0.489699	8.216517	
Ar	1.297452	2.594904	-7.355401	
	3

Ar	-1.470831	-2.941661	-0.881373	
Ar	0.249841	0.499682	8.371414	
Ar	1.320989	2.641979	-7.490042	
	3

Ar	-1.499359	-2.998719	-0.901630	
Ar	0.254833	0.509665	8.526312	
Ar	1.344527	2.689053	-7.624682	
	3

Ar	-1.527888	-3.055776	-0.921887	
Ar	0.259824	0.519648	8.681209	
Ar	1.368064	2.736128	-7.759323	
	3

Ar	-1.556417	-3.112834	-0.942143	
Ar	0.264816	0.529631	8.836107	
Ar	1.391601	2.783203	-7.893963	
	3

Ar	-1.584946	-3.169891	-0.962400	
Ar	0.269807	0.539614	8.991004	
Ar	1.415139	2.830277	-8.028604	
	3

Ar	-1.613474	-3.226949	-0.982657	
Ar	0.274799	0.549597	9.145901	
Ar	1.438676	2.877352	-8.163245	
	3

Ar	-1.642003	-3.284006	-1.002914	
Ar	0.279790	0.559580	9.300799	
Ar	1.462213	2.924426	-8.297885	
	3

Ar	-1.670532	-3.341064	-1.023170	
Ar	0.284782	0.569563	9.455696	
Ar	1.485750	2.971501	-8.432526	
	3

Ar	-1.699061	-3.398122	-1.043427	
Ar	0.289773	0.579546	9.610593	
Ar	1.509288	3.018575	-8.567166	
	3

Ar	-1.727590	-3.455179	-1.063684	
Ar	0.294765	0.589529	9.765491	
Ar	1.532825	3.065650	-8.701807	
	3

Ar	-1.756118	-3.512237	-1.083941	
Ar	0.299756	0.599512	9.920388	
Ar	1.556362	3.112724	-8.836447	
	3

Ar	-1.784647	-3.569294	-1.104198	
Ar	0.304748	0.609495	10.075286	
Ar	1.579900	3.159799	-8.971088	
	3

Ar	-1.813176	-3.626352	-1.124454	
Ar	0.309739	0.619478	10.230183	
Ar	1.603437	3.206874	-9.105729	
	3

Ar	-1.841705	-3.683409	-1.144711	
Ar	0.314731	0.629461	10.385080	
Ar	1.626974	3.253948	-9.240369	
	3

Ar	-1.870233	-3.740467	-1.164968	
Ar	0.319722	0.639444	10.539978	
Ar	1.650511	3.301023	-9.375010	
	3

Ar	-1.898762	-3.797524	-1.185225	
Ar	0.324714	0.649427	10.694875	
Ar	1.674049	3.348097	-9.509650	
	3

Ar	-1.927291	-3.854582	-1.205481	
Ar	0.329705	0.659410	10.849772	
Ar	1.697586	3.395172	-9.644291	
	3

Ar	-1.955820	-3.911640	-1.225738	
Ar	0.334697	0.669393	11.004670	
Ar	1.721123	3.442246	-9.778932	
	3

Ar	-1.984349	-3.968697	-1.245995	
Ar	0.339688	0.679376	11.159567	
Ar	1.744660	3.489321	-9.913572	
	3

Ar	-2.012877	-4.025755	-1.266252	
Ar	0.344680	0.689359	11.314465	
Ar	1.768198	3.536395	-10.048213	
	3

Ar	-2.041406	-4.082812	-1.286509	
Ar	0.349671	0.699342	11.469362	
Ar	1.791735	3.583470	-10.182853	
	3

Ar	-2.069935	-4.139870	-1.306765	
Ar	0.354663	0.709325	11.624259	
Ar	1.815272	3.630545	-10.317494	
	3

Ar	-2.098464	-4.196927	-1.327022	
Ar	0.359654	0.719308	11.779157	
Ar	1.838810	3.677619	-10.452135	
	3

Ar	-2.126992	-4.253985	-1.347279	
Ar	0.364646	0.729291	11.934054	
Ar	1.862347	3.724694	-10.586775	
	3

Ar	-2.155521	-4.311042	-1.367536	
Ar	0.369637	0.739274	12.088951	
Ar	1.885884	3.771768	-10.721416	
	3

Ar	-2.184050	-4.368100	-1.387792	
Ar	0.374629	0.749257	12.243849	
Ar	1.909421	3.818843	-10.856056	
	3

Ar	-2.212579	-4.425158	-1.408049	
Ar	0.379620	0.759240	12.398746	
Ar	1.932959	3.865917	-10.990697	
	3

Ar	-2.241108	-4.482215	-1.428306	
Ar	0.384612	0.769223	12.553644	
Ar	1.956496	3.912992	-11.125338	
	3

Ar	-2.269636	-4.539273	-1.448563	
Ar	0.389603	0.779206	12.708541	
Ar	1.980033	3.960066	-11.259978	
	3

Ar	-2.298165	-4.596330	-1.468820	
Ar	0.394595	0.789189	12.863438	
Ar	2.003571	4.007141	-11.394619	
	3

Ar	-2.326694	-4.653388	-1.489076	
Ar	0.399586	0.799172	13.018336	
Ar	2.027108	4.054216	-11.529259	
	3

Ar	-2.355223	-4.710445	-1.509333	
Ar	0.404578	0.809155	13.173233	
Ar	2.050645	4.101290	-11.663900	
	3

Ar	-2.383751	-4.767503	-1.529590	
Ar	0.409569	0.819138	13.328130	
Ar	2.074182	4.148365	-11.798541	
	3

Ar	-2.412280	-4.824560	-1.549847	
Ar	0.414561	0.829121	13.483028	
Ar	2.097720	4.195439	-11.933181	
	3

Ar	-2.440809	-4.881618	-1.570103	
Ar	0.419552	0.839104	13.637925	
Ar	2.121257	4.242514	-12.067822	
	3

Ar	-2.469338	-4.938676	-1.590360	
Ar	0.424544	0.849087	13.792823	
Ar	2.144794	4.289588	-12.202462	
	3

Ar	-2.497867	-4.995733	-1.610617	
Ar	0.429535	0.859070	13.947720	
Ar	2.168331	4.336663	-12.337103	
	3

Ar	-2.526395	-5.052791	-1.630874	
Ar	0.434527	0.869053	14.102617	
Ar	2.191869	4.383737	-12.471744	
	3

Ar	-2.554924	-5.109848	-1.651131	
Ar	0.439518	0.879036	14.257515	
Ar	2.215406	4.430812	-12.606384	
	3

Ar	-2.583453	-5.166906	-1.671387	
Ar	0.444510	0.889019	14.412412	
Ar	2.238943	4.477887	-12.741025	
	3

Ar	-2.611982	-5.223963	-1.691644	
Ar	0.449501	0.899002	14.567309	
Ar	2.262481	4.524961	-12.875665	
	3

Ar	-2.640510	-5.281021	-1.711901	
Ar	0.454493	0.908985	14.722207	
Ar	2.286018	4.572036	-13.010306	
	3

Ar	-2.669039	-5.338078	-1.732158	
Ar	0.459484	0.918968	14.877104	
Ar	2.309555	4.619110	-13.144946	
